     8
jmolscript:isosurface resolution 5 molecular  0.0 map MEP translucent; background white; color isosurface range -0.1 0.1                              
 C     1.2122    1.2839    0.0000    0.0983
 C     0.0000    0.7199    0.0000    0.4301
 C    -0.1444   -0.7426    0.0000    1.0260
 O    -1.2204   -1.3246    0.0000    0.0312
 H     1.3498    2.3542    0.0000    0.0700
 H     2.1062    0.6744    0.0000    0.0262
 H    -0.9108    1.3027    0.0000    0.0543
 H     0.8110   -1.3014    0.0000    0.0601
