     8
jmolscript:isosurface resolution 5 molecular  0.0 map MEP translucent; background white; color isosurface rang e -0.02 0.02                           
 C     1.2122    1.2839    0.0000   -0.0397
 C     0.0000    0.7199    0.0000    0.3283
 C    -0.1444   -0.7426    0.0000    0.1446
 O    -1.2204   -1.3246    0.0000    0.8383
 H     1.3498    2.3542    0.0000    0.1277
 H     2.1062    0.6744    0.0000    0.0932
 H    -0.9108    1.3027    0.0000    0.1184
 H     0.8110   -1.3014    0.0000    0.1854
