     8
jmolscript:isosurface resolution 10 molecular 0.0 map MEP; background white; color isosurface range -0.1 0.1;   isosurface translucent                
 C     1.2122    1.2839    0.0000    0.1214
 C     0.0000    0.7199    0.0000    0.2311
 C    -0.1444   -0.7426    0.0000    0.6952
 O    -1.2204   -1.3246    0.0000   -0.5831
 H     1.3498    2.3542    0.0000   -0.0787
 H     2.1062    0.6744    0.0000   -0.1542
 H    -0.9108    1.3027    0.0000   -0.0717
 H     0.8110   -1.3014    0.0000   -0.1600
