    13
jmolscript:isosurface resolution 5 molecular  0.0 map MEP translucent; background white; color isosurface range -0.1 0.1                              
 C     0.0000    0.5948    0.0000    0.6593
 C     1.3291    0.1791    0.0000    0.5846
 C    -1.0523   -0.3215    0.0000    0.5793
 C    -0.7554   -1.6777    0.0000    0.5993
 C     0.5748   -2.1080    0.0000    0.5210
 C     1.6170   -1.1824    0.0000    0.5882
 N    -0.1870    2.0250    0.0000    0.6710
 O    -1.3615    2.3800    0.0000    0.5578
 H     2.1067    0.9307    0.0000    0.2072
 H    -2.0694    0.0430    0.0000    0.2290
 H    -1.5551   -2.4056    0.0000    0.1989
 H     0.7956   -3.1668    0.0000    0.2167
 H     2.6433   -1.5219    0.0000    0.2091
