    13
jmolscript:isosurface resolution 5 molecular  0.0 map MEP translucent; background white; color isosurface range -0.1 0.1                              
 C     0.0000    0.5948    0.0000    0.0645
 C     1.3291    0.1791    0.0000   -0.0354
 C    -1.0523   -0.3215    0.0000   -0.0442
 C    -0.7554   -1.6777    0.0000   -0.0311
 C     0.5748   -2.1080    0.0000   -0.0846
 C     1.6170   -1.1824    0.0000   -0.0295
 N    -0.1870    2.0250    0.0000    0.0279
 O    -1.3615    2.3800    0.0000   -0.2917
 H     2.1067    0.9307    0.0000    0.0759
 H    -2.0694    0.0430    0.0000    0.0969
 H    -1.5551   -2.4056    0.0000    0.0674
 H     0.7956   -3.1668    0.0000    0.1048
 H     2.6433   -1.5219    0.0000    0.0792
