    13
jmolscript:isosurface resolution 5 molecular  0.0 map MEP translucent; background white; color isosurface rang e -0.02 0.02                           
 C     0.0000    0.5948    0.0000    0.0133
 C     1.3291    0.1791    0.0000   -0.0690
 C    -1.0523   -0.3215    0.0000   -0.0812
 C    -0.7554   -1.6777    0.0000   -0.0584
 C     0.5748   -2.1080    0.0000    0.0081
 C     1.6170   -1.1824    0.0000   -0.0389
 N    -0.1870    2.0250    0.0000    0.0342
 O    -1.3615    2.3800    0.0000    0.0821
 H     2.1067    0.9307    0.0000    0.0134
 H    -2.0694    0.0430    0.0000    0.0151
 H    -1.5551   -2.4056    0.0000    0.0139
 H     0.7956   -3.1668    0.0000    0.0475
 H     2.6433   -1.5219    0.0000    0.0198
