    13
jmolscript:isosurface resolution 5 molecular  0.0 map MEP translucent; background white; color isosurface rang e -0.02 0.02                           
 C     0.0000    0.5948    0.0000   -0.0127
 C     1.3291    0.1791    0.0000    0.0021
 C    -1.0523   -0.3215    0.0000   -0.0104
 C    -0.7554   -1.6777    0.0000    0.0217
 C     0.5748   -2.1080    0.0000   -0.0453
 C     1.6170   -1.1824    0.0000    0.0246
 N    -0.1870    2.0250    0.0000   -0.0845
 O    -1.3615    2.3800    0.0000   -0.0199
 H     2.1067    0.9307    0.0000    0.0184
 H    -2.0694    0.0430    0.0000    0.0208
 H    -1.5551   -2.4056    0.0000    0.0212
 H     0.7956   -3.1668    0.0000    0.0389
 H     2.6433   -1.5219    0.0000    0.0251
