     8
jmolscript:isosurface resolution 5 molecular  0.0 map MEP translucent; background white; color isosurface rang e -0.02 0.02                           
 C     1.2122    1.2839    0.0000   -0.3694
 C     0.0000    0.7199    0.0000    0.0068
 C    -0.1444   -0.7426    0.0000   -0.1280
 O    -1.2204   -1.3246    0.0000    0.3120
 H     1.3498    2.3542    0.0000    0.0446
 H     2.1062    0.6744    0.0000    0.0006
 H    -0.9108    1.3027    0.0000    0.0343
 H     0.8110   -1.3014    0.0000    0.0991
