    26
jmolscript:isosurface resolution 5 molecular  0.0 map MEP translucent; background white; color isosurface range -0.1 0.1                              
 H     0.7809   -1.3138   -0.0000    0.0744
 H    -2.6503    0.3736   -0.0000    0.0826
 H    -4.7442   -0.8989   -0.0000    0.0551
 H    -4.7097   -3.3784   -0.0000    0.0606
 H    -2.5340   -4.5730   -0.0000    0.0754
 C     3.7824    2.8223    0.0000   -0.1107
 C     3.8001    1.4267    0.0000   -0.0259
 C     2.6118    0.7071    0.0000   -0.0847
 C     1.3722    1.3663    0.0000    0.0181
 C     1.3722    2.7691    0.0000   -0.0364
 C     2.5612    3.4918    0.0000   -0.0264
 C     0.0908    0.6681    0.0000   -0.1382
 C    -0.0908   -0.6681   -0.0000   -0.1382
 H     4.7097    3.3784    0.0000    0.0606
 H     4.7442    0.8989    0.0000    0.0551
 H     0.4238    3.2923    0.0000    0.0559
 H     2.5340    4.5730    0.0000    0.0754
 H    -0.7809    1.3138    0.0000    0.0744
 C    -1.3722   -1.3663   -0.0000    0.0181
 C    -1.3722   -2.7691   -0.0000   -0.0364
 C    -2.5612   -3.4918   -0.0000   -0.0264
 C    -3.7824   -2.8223   -0.0000   -0.1107
 C    -3.8001   -1.4267   -0.0000   -0.0259
 C    -2.6118   -0.7071   -0.0000   -0.0847
 H    -0.4238   -3.2923   -0.0000    0.0559
 H     2.6503   -0.3736    0.0000    0.0826
