    26
jmolscript:isosurface resolution 5 molecular  0.0 map MEP translucent; background white; color isosurface range -0.1 0.1                              
 H     0.7809   -1.3138   -0.0000    0.0685
 H    -2.6503    0.3736   -0.0000    0.0597
 H    -4.7442   -0.8989   -0.0000    0.0522
 H    -4.7097   -3.3784   -0.0000    0.0530
 H    -2.5340   -4.5730   -0.0000    0.0534
 C     3.7824    2.8223    0.0000   -0.0545
 C     3.8001    1.4267    0.0000   -0.0529
 C     2.6118    0.7071    0.0000   -0.0676
 C     1.3722    1.3663    0.0000    0.0149
 C     1.3722    2.7691    0.0000   -0.0569
 C     2.5612    3.4918    0.0000   -0.0539
 C     0.0908    0.6681    0.0000   -0.0702
 C    -0.0908   -0.6681   -0.0000   -0.0702
 H     4.7097    3.3784    0.0000    0.0530
 H     4.7442    0.8989    0.0000    0.0522
 H     0.4238    3.2923    0.0000    0.0542
 H     2.5340    4.5730    0.0000    0.0534
 H    -0.7809    1.3138    0.0000    0.0685
 C    -1.3722   -1.3663   -0.0000    0.0149
 C    -1.3722   -2.7691   -0.0000   -0.0569
 C    -2.5612   -3.4918   -0.0000   -0.0539
 C    -3.7824   -2.8223   -0.0000   -0.0545
 C    -3.8001   -1.4267   -0.0000   -0.0529
 C    -2.6118   -0.7071   -0.0000   -0.0676
 H    -0.4238   -3.2923   -0.0000    0.0542
 H     2.6503   -0.3736    0.0000    0.0597
