     8
jmolscript:isosurface resolution 5 molecular  0.0 map MEP translucent; background white; color isosurface range -0.1 0.1                              
 C     1.2122    1.2839    0.0000   -0.2216
 C     0.0000    0.7199    0.0000   -0.0999
 C    -0.1444   -0.7426    0.0000    0.1076
 O    -1.2204   -1.3246    0.0000   -0.1805
 H     1.3498    2.3542    0.0000    0.1227
 H     2.1062    0.6744    0.0000    0.0796
 H    -0.9108    1.3027    0.0000    0.0810
 H     0.8110   -1.3014    0.0000    0.1112
