   280
jmolscript:isosurface resolution 10 molecular 0.0 map MEP; background white; color isosurface range -0.1 0.1;   isosurface translucent                
 C    17.7670    3.2810    2.9200   -0.1688
 C    18.2920    4.6540    3.4410   -0.0301
 C    17.2650    5.7830    3.5400    0.4879
 O    16.3390    5.8110    2.6880   -0.4813
 O    17.4650    6.6660    4.4620   -0.5359
 H    17.2270    2.7210    3.6830    0.0552
 H    18.6850    2.7610    2.6680    0.0640
 H    17.1400    3.3740    2.0270    0.0732
 H    18.9290    4.6350    4.3270    0.0652
 H    18.9430    4.9180    2.5850    0.0851
 C    13.8590    6.0270    7.4730   -0.3002
 H    13.5310    5.4080    8.3080    0.0590
 H    13.5990    7.0310    7.6590    0.0636
 H    14.9040    5.9510    7.3660    0.1048
 H    13.4790    5.6160    6.5170    0.0703
 C     9.1030    3.1630    7.8650    0.0627
 O     9.3680    3.3570    6.4910   -0.4803
 C     7.5780    3.0860    8.0020   -0.1622
 H     9.4220    4.0090    8.4740    0.0689
 H     9.4950    2.2340    8.2610    0.0778
 H    10.3290    3.3160    6.2930    0.2562
 H     7.0970    3.9500    7.3700    0.0729
 H     7.2750    2.1030    7.4610    0.0685
 H     7.2070    2.9940    9.0270    0.0657
 C     6.7860    3.5840   13.8930   -0.1734
 C     5.9100    4.1230   12.7670   -0.1168
 C     4.6360    4.6820   13.1290    0.5031
 O     3.7370    4.0370   13.6850   -0.5022
 O     4.4490    6.0300   12.9520   -0.4549
 H     7.1700    4.3780   14.5340    0.0745
 H     7.5480    3.0460   13.4520    0.0840
 H     6.1530    2.9540   14.5110    0.0879
 H     6.5710    4.7650   12.1770    0.0991
 H     5.7630    3.4080   12.0260    0.1202
 H     3.4920    6.1510   12.9740    0.2846
 C     5.3350    8.2130   16.7630   -0.2131
 C     3.9330    8.8090   17.0290   -0.0273
 C     4.1070   10.1760   17.8160   -0.2221
 C     3.3300    9.1770   15.7520   -0.1789
 H     5.8570    8.1220   17.7150    0.0625
 H     5.9420    8.8700   16.1760    0.0815
 H     5.2970    7.2770   16.1930    0.0581
 H     3.3010    8.2200   17.6820    0.0583
 H     3.0950   10.5060   17.8600    0.0724
 H     4.6060   10.1020   18.7610    0.0592
 H     4.6380   10.8090   17.1000    0.0734
 H     4.1050    9.6380   15.0870    0.0638
 H     2.9870    8.3060   15.1150    0.0495
 H     2.4410    9.8590   15.8720    0.0518
 C    10.4330    1.9570   -0.4020   -0.1872
 C    10.0440    1.7410    1.0170    0.0170
 C    10.0220    2.7810    1.9900   -0.0654
 C     9.6980    2.5850    3.3230   -0.0745
 C     9.5620    1.2580    3.8210    0.1749
 O     9.0440    0.9830    5.0310   -0.4870
 C     9.5370    0.1690    2.9040   -0.0566
 C     9.8040    0.4330    1.5550   -0.0714
 H     9.6340    2.3760   -1.0140    0.0754
 H    10.6790    0.9570   -0.8280    0.0718
 H    11.3370    2.5540   -0.4540    0.0818
 H    10.3800    3.7610    1.5500    0.0451
 H     9.6940    3.5410    3.9400    0.0547
 H     8.9690    1.7800    5.5850    0.2789
 H     9.2430   -0.8040    3.3030    0.0669
 H     9.6950   -0.3750    0.8220    0.0495
 C    16.8550    9.1730    1.6060   -0.0143
 O    16.1770   10.2730    1.0020   -0.5105
 H    17.0260    8.3970    0.8590    0.0883
 H    16.1480    8.7840    2.3570    0.0880
 H    17.8230    9.4390    2.1300    0.0633
 H    15.2650   10.3310    1.3090    0.2598
 C     5.4810    5.5240    1.8730   -0.1301
 C     4.0210    5.2080    1.3370   -0.2060
 C     6.0720    4.3520    2.7220   -0.1255
 C     5.9860    2.9690    2.0930   -0.1989
 H     6.1510    5.5900    1.0150    0.0621
 H     5.4900    6.3980    2.4100    0.0682
 H     4.0320    4.3450    0.5970    0.0602
 H     3.5080    4.9710    2.2640    0.0719
 H     3.5620    6.0350    0.8820    0.0651
 H     7.0990    4.5190    3.0700    0.0635
 H     5.5350    4.3790    3.6430    0.0644
 H     6.6570    2.8780    1.2090    0.0602
 H     6.3240    2.2950    2.8310    0.0748
 H     4.9600    2.7870    1.7130    0.0663
 C     2.7400   10.5170   -1.1780   -0.1896
 C     3.9360   10.5810   -0.2680    0.0357
 C     3.9330    9.7850    0.8360   -0.0806
 C     5.1770    9.6360    1.5130   -0.0682
 C     6.3330   10.3240    1.1310    0.1709
 O     7.4870   10.0750    1.7680   -0.4494
 C     6.1730   11.3030    0.1740   -0.0581
 C     4.9850   11.5290   -0.4790   -0.0682
 H     2.8130    9.6970   -1.8920    0.0805
 H     2.6200   11.5210   -1.7040    0.0607
 H     1.9030   10.3060   -0.5320    0.0796
 H     3.1310    9.1110    1.0930    0.0571
 H     5.2530    9.0620    2.3800    0.0702
 H     8.3040   10.3990    1.3130    0.2484
 H     6.9870   11.9190   -0.2000    0.0590
 H     4.9680   12.3330   -1.2600    0.0519
 C     0.2190    5.4140    5.9310   -0.2072
 C     1.6060    5.8710    6.4400   -0.0818
 S     2.8990    5.9770    5.2460   -0.2178
 C     2.2580    7.5120    4.4690   -0.1341
 H    -0.5330    5.2980    6.7110    0.0673
 H     0.2940    4.4640    5.4390    0.0772
 H    -0.0660    6.0940    5.2090    0.0828
 H     1.4690    6.8310    6.8680    0.0853
 H     1.8590    5.3700    7.2810    0.0921
 H     2.1180    8.1970    5.3610    0.0742
 H     3.0470    7.9020    3.8920    0.0879
 H     1.4340    7.2320    3.8470    0.0839
 C     1.0580    4.6040   11.3530   -0.1936
 C     0.7810    3.1630   11.7260    0.0756
 N     1.3960    2.3730   12.6830   -0.2100
 C     0.8460    1.1520   12.6310    0.0963
 N     0.0380    1.0900   11.5520   -0.2936
 C    -0.0790    2.3610   11.0460   -0.0328
 H     0.5110    5.2490   12.0410    0.0789
 H     0.7350    4.6870   10.3400    0.0802
 H     2.1080    4.8610   11.5010    0.0801
 H     2.1820    2.6810   13.2590    0.1906
 H     1.1470    0.3010   13.2240    0.0701
 H    -0.7110    2.7560   10.2140    0.0480
 C     0.8670   10.1220   11.4900   -0.2091
 C     1.2440   11.5180   11.8060    0.0424
 C     2.5010   11.8220   12.4200   -0.0963
 C     2.8780   13.1540   12.5910   -0.0478
 C     2.0920   14.1920   12.0200   -0.0721
 C     0.8040   13.8930   11.5550   -0.0342
 C     0.4040   12.5830   11.2720   -0.0918
 H     0.4950    9.4810   12.2890    0.0778
 H     1.7510    9.7440   11.1560    0.0990
 H     0.1430   10.1410   10.6380    0.0666
 H     3.1410   11.0830   12.8600    0.0587
 H     3.7560   13.4040   13.1400    0.0562
 H     2.4480   15.2580   11.9970    0.0427
 H     0.1090   14.7430   11.3470    0.0483
 H    -0.5610   12.4590   10.8380    0.0600
 C     8.4190   13.6560   17.7730   -0.1980
 C     8.1010   12.4510   16.9350    0.0354
 C     9.0640   11.4050   16.6420   -0.0766
 C     8.7170   10.4420   15.6850   -0.0436
 C     7.5240   10.5500   14.9690   -0.0802
 C     6.5510   11.4890   15.3130   -0.0440
 C     6.8310   12.4450   16.2970   -0.0858
 H     8.8540   14.4450   17.1590    0.0794
 H     9.1310   13.3310   18.4630    0.0858
 H     7.5390   14.0450   18.3200    0.0708
 H    10.0390   11.2980   17.2290    0.0421
 H     9.4970    9.7400   15.4160    0.0555
 H     7.3660    9.7580   14.2940    0.0586
 H     5.6370   11.4510   14.7080    0.0550
 H     6.1960   13.2790   16.4380    0.0589
 C     7.8600   13.5940   12.0500   -0.2041
 C     9.0250   12.6430   12.2420   -0.0231
 C     9.9790   12.6510   13.2580   -0.0192
 N    10.9350   11.6850   12.9950   -0.2490
 C    10.7080   11.0450   11.7990    0.0917
 C    11.4010   10.0280   11.1010   -0.0747
 C    11.0090    9.6980    9.8310   -0.0626
 C     9.9050   10.4040    9.2300   -0.0872
 C     9.1630   11.3500   10.0070   -0.0658
 C     9.5770   11.6980   11.2910    0.0021
 H     8.1040   14.4520   11.4230    0.0739
 H     7.5090   13.8850   12.9990    0.0871
 H     6.9950   13.0430   11.7060    0.0794
 H     9.8270   13.2730   14.0940    0.0738
 H    11.7160   11.6520   13.5450    0.1689
 H    12.2450    9.5320   11.4870    0.0630
 H    11.4580    8.8890    9.3670    0.0659
 H     9.5700   10.1350    8.2200    0.0596
 H     8.2830   11.8830    9.6460    0.0563
 C     8.5720   14.1400    6.9160   -0.1901
 C     8.8890   13.0090    5.9590    0.0332
 C     9.7670   13.2530    4.8710   -0.0569
 C    10.1460   12.2370    4.0390   -0.0678
 C     9.7190   10.9120    4.2980    0.1898
 O    10.1600    9.8470    3.5900   -0.4584
 C     8.9200   10.6240    5.4310   -0.0648
 C     8.4720   11.7010    6.2200   -0.0733
 H     7.9330   14.9610    6.5920    0.0768
 H     9.5910   14.6050    7.1920    0.0724
 H     8.1960   13.6570    7.8180    0.0753
 H    10.1730   14.2600    4.7750    0.0572
 H    10.6900   12.4240    3.1320    0.0634
 H    10.3870   10.1620    2.7070    0.2579
 H     8.5480    9.6600    5.7530    0.0800
 H     7.8220   11.5970    7.0870    0.0644
 C     3.4970   13.8120    8.4000   -0.2905
 H     3.8980   13.8710    7.3880    0.0649
 H     4.1400   13.1420    8.9760    0.0701
 H     3.5120   14.7630    8.8730    0.0759
 H     2.5200   13.4390    8.4460    0.0782
 C    13.5300   13.6190    2.4250   -0.2898
 H    13.5660   14.0540    3.4240    0.0639
 H    13.7440   12.5910    2.4060    0.0822
 H    12.5550   13.8620    2.0510    0.0687
 H    14.2620   14.1050    1.8020    0.0799
 C    12.6180   13.0110    8.2500   -0.2830
 H    13.0940   13.5690    9.0560    0.0717
 H    13.3520   12.7750    7.5320    0.0725
 H    12.1420   12.1640    8.6800    0.0787
 H    11.8770   13.7330    7.7220    0.0562
 C    17.8100   11.5200    9.0130   -0.1934
 C    17.2990   11.1340    7.6410   -0.1142
 C    18.4480   10.6120    6.6960   -0.1102
 C    18.0300   10.3140    5.2360   -0.0168
 N    16.9760    9.2780    5.0870   -0.2711
 H    16.9790   11.7320    9.6850    0.0601
 H    18.4910   12.3290    8.9810    0.0709
 H    18.4350   10.6870    9.3790    0.0710
 H    16.5940   10.3060    7.8160    0.0649
 H    16.8360   12.0260    7.2190    0.0549
 H    19.2150   11.3880    6.6690    0.0708
 H    18.9130    9.7200    7.1370    0.0775
 H    17.6760   11.2320    4.7430    0.0711
 H    18.8850    9.9490    4.6520    0.0901
 H    17.2010    8.3110    4.7380    0.2769
 C     5.1520    8.9470    8.3450    0.0389
 C     4.9650   10.1230    9.3430   -0.1176
 C     5.0190    9.7130   10.8260   -0.1189
 C     6.3070    8.9420   11.1530   -0.1120
 C     6.7740    7.9910   10.0590    0.0215
 C     6.3680    8.0810    8.7620   -0.0362
 C     6.9880    7.3260    7.6500   -0.0973
 C     8.3170    7.4170    7.3660   -0.0967
 C     9.0330    7.0190    6.1740   -0.0474
 C    10.3500    7.4590    6.0800   -0.0850
 C    11.2460    7.1940    5.0140   -0.1473
 C    12.5420    7.6350    4.8010   -0.0841
 C    13.3560    8.6780    5.3380   -0.0446
 C    14.7040    8.5680    5.0040   -0.1172
 C    15.6950    9.5110    5.3060    0.0478
 C     3.9210    8.0040    8.3280   -0.2036
 C     5.3060    9.5710    6.9300   -0.2086
 C     7.7220    6.9020   10.5400   -0.1973
 C     8.3330    6.2650    5.0700   -0.1913
 C    12.8120    9.8230    6.1800   -0.1999
 H     3.7230    7.5600    9.3050    0.0742
 H     4.0630    7.1870    7.6170    0.0809
 H     3.0100    8.5370    8.0230    0.0648
 H     5.4420    8.8220    6.1440    0.0696
 H     6.1540   10.2550    6.8750    0.0751
 H     4.4040   10.1510    6.6770    0.0637
 H     4.0140   10.6260    9.1220    0.0646
 H     5.7630   10.8640    9.1400    0.0615
 H     4.1550    9.0900   11.0730    0.0657
 H     4.9500   10.6120   11.4450    0.0664
 H     6.1570    8.3880   12.0840    0.0763
 H     7.1400    9.6500   11.3450    0.0803
 H     7.6500    6.7980   11.6280    0.0739
 H     8.7750    7.0890   10.2960    0.0815
 H     7.4410    5.9340   10.1150    0.0816
 H     6.3300    6.8350    6.9340    0.0791
 H     8.9230    7.9600    8.0900    0.0707
 H     9.0450    5.7470    4.4250    0.0935
 H     7.7500    6.9590    4.4470    0.0898
 H     7.6290    5.5310    5.4720    0.0906
 H    10.7110    8.0220    6.9370    0.0626
 H    10.9130    6.4590    4.2880    0.0871
 H    13.0720    7.0310    4.0680    0.0810
 H    13.3220    9.8750    7.1500    0.0843
 H    12.9720   10.7750    5.6630    0.0862
 H    11.7390    9.7400    6.3530    0.0945
 H    15.0240    7.6740    4.4700    0.1124
 H    15.4250   10.4770    5.7120    0.0844
 O    17.1290    5.2050    6.6920   -0.5988
 H    16.4210    4.6180    6.3600    0.2325
 H    17.2020    5.8280    5.9290    0.3020
 O    13.5890    9.9360    2.0810   -0.5196
 H    12.7420   10.5520    2.0160    0.2518
 H    13.2160    9.2700    2.6640    0.2750
 O     4.8170    3.3740    6.5900   -0.5389
 H     4.8640    2.4490    6.7130    0.2697
 H     4.3850    3.5690    5.8210    0.2727
 O     4.9120    4.9500    9.2280   -0.5683
 H     5.1870    5.8180    8.8340    0.2660
 H     4.6320    4.4090    8.4540    0.2637
