    24
jmolscript:isosurface resolution 5 molecular  0.0 map MEP translucent; background white; color isosurface range -0.1 0.1                              
 C     3.8430   -0.6188    0.0328    0.1145
 C     3.6537    0.7184   -0.3308    0.1798
 C     2.3841    1.2639   -0.2930    0.1918
 C     1.2718    0.4527    0.0541    0.1247
 C     1.4833   -0.8923    0.4533    0.1444
 C     2.7642   -1.4121    0.4430    0.1814
 C     0.0000    1.0578   -0.0000    0.1105
 C    -1.2718    0.4527   -0.0541    0.1247
 C    -2.3841    1.2639    0.2930    0.1918
 C    -3.6537    0.7184    0.3308    0.1798
 C    -3.8430   -0.6188   -0.0328    0.1145
 C    -2.7642   -1.4121   -0.4430    0.1814
 C    -1.4833   -0.8923   -0.4533    0.1444
 H     0.0000    2.1460    0.0000   -0.1352
 H     4.8402   -1.0378    0.0265   -0.0506
 H     4.4985    1.3251   -0.6228   -0.0522
 H     2.2189    2.2990   -0.5631   -0.1097
 H     0.6602   -1.4766    0.8378   -0.1259
 H     2.9379   -2.4270    0.7707   -0.0857
 H    -2.2189    2.2990    0.5631   -0.1097
 H    -4.4985    1.3251    0.6228   -0.0522
 H    -4.8402   -1.0378   -0.0265   -0.0506
 H    -2.9379   -2.4270   -0.7707   -0.0857
 H    -0.6602   -1.4766   -0.8378   -0.1259
