    24
jmolscript:isosurface resolution 5 molecular  0.0 map MEP translucent; background white; color isosurface rang e -0.02 0.02                           
 C     3.8430   -0.6188    0.0328   -0.0785
 C     3.6537    0.7184   -0.3308    0.0496
 C     2.3841    1.2639   -0.2930   -0.0030
 C     1.2718    0.4527    0.0541    0.0874
 C     1.4833   -0.8923    0.4533   -0.0635
 C     2.7642   -1.4121    0.4430    0.0448
 C     0.0000    1.0578   -0.0000   -0.2283
 C    -1.2718    0.4527   -0.0541    0.0874
 C    -2.3841    1.2639    0.2930   -0.0030
 C    -3.6537    0.7184    0.3308    0.0496
 C    -3.8430   -0.6188   -0.0328   -0.0785
 C    -2.7642   -1.4121   -0.4430    0.0448
 C    -1.4833   -0.8923   -0.4533   -0.0635
 H     0.0000    2.1460    0.0000    0.0006
 H     4.8402   -1.0378    0.0265    0.0228
 H     4.4985    1.3251   -0.6228    0.0279
 H     2.2189    2.2990   -0.5631    0.0010
 H     0.6602   -1.4766    0.8378    0.0224
 H     2.9379   -2.4270    0.7707    0.0031
 H    -2.2189    2.2990    0.5631    0.0010
 H    -4.4985    1.3251    0.6228    0.0279
 H    -4.8402   -1.0378   -0.0265    0.0228
 H    -2.9379   -2.4270   -0.7707    0.0031
 H    -0.6602   -1.4766   -0.8378    0.0224
