    26
jmolscript:isosurface resolution 5 molecular  0.0 map MEP translucent; background white; color isosurface rang e -0.02 0.02                           
 H     0.7809   -1.3138   -0.0000    0.0276
 H    -2.6503    0.3736   -0.0000    0.0051
 H    -4.7442   -0.8989   -0.0000    0.0246
 H    -4.7097   -3.3784   -0.0000    0.0105
 H    -2.5340   -4.5730   -0.0000    0.0031
 C     3.7824    2.8223    0.0000   -0.0529
 C     3.8001    1.4267    0.0000    0.0167
 C     2.6118    0.7071    0.0000    0.0008
 C     1.3722    1.3663    0.0000    0.0218
 C     1.3722    2.7691    0.0000   -0.0310
 C     2.5612    3.4918    0.0000    0.0244
 C     0.0908    0.6681    0.0000   -0.0705
 C    -0.0908   -0.6681   -0.0000   -0.0705
 H     4.7097    3.3784    0.0000    0.0105
 H     4.7442    0.8989    0.0000    0.0246
 H     0.4238    3.2923    0.0000    0.0198
 H     2.5340    4.5730    0.0000    0.0031
 H    -0.7809    1.3138    0.0000    0.0276
 C    -1.3722   -1.3663   -0.0000    0.0218
 C    -1.3722   -2.7691   -0.0000   -0.0310
 C    -2.5612   -3.4918   -0.0000    0.0244
 C    -3.7824   -2.8223   -0.0000   -0.0529
 C    -3.8001   -1.4267   -0.0000    0.0167
 C    -2.6118   -0.7071   -0.0000    0.0008
 H    -0.4238   -3.2923   -0.0000    0.0198
 H     2.6503   -0.3736    0.0000    0.0051
