    36
jmolscript:isosurface resolution 5 molecular  0.0 map MEP translucent; background white; color isosurface rang e -0.02 0.02                           
 C     1.2487   -3.5706    0.0000    0.0512
 C     2.4679   -2.8668    0.0000   -0.0504
 H     1.2882   -4.6554    0.0000   -0.0002
 C    -0.0000   -2.9573    0.0000   -0.0438
 H     3.3876   -3.4434    0.0000   -0.0001
 C     2.5612   -1.4787    0.0000    0.0411
 C    -1.2488   -3.5706    0.0000    0.0365
 H    -0.0001   -1.8751    0.0000   -0.0002
 C     3.7166   -0.7039    0.0000   -0.0286
 C    -2.4679   -2.8668    0.0000   -0.0238
 H     1.6238   -0.9376    0.0000   -0.0001
 H    -1.2883   -4.6554    0.0000   -0.0001
 C     3.7166    0.7039    0.0000    0.0128
 C    -2.5611   -1.4787    0.0000    0.0062
 H     4.6758   -1.2121    0.0000   -0.0001
 H    -3.3876   -3.4434    0.0000   -0.0001
 C     2.5611    1.4786    0.0000    0.0062
 C    -3.7167   -0.7039    0.0000    0.0128
 H     4.6759    1.2120    0.0000   -0.0001
 H    -1.6239   -0.9374    0.0000   -0.0000
 C     2.4679    2.8668    0.0000   -0.0238
 C    -3.7166    0.7039    0.0000   -0.0286
 H     1.6239    0.9375    0.0000   -0.0000
 H    -4.6759   -1.2120    0.0000   -0.0001
 C     1.2487    3.5707    0.0000    0.0365
 C    -2.5611    1.4787    0.0000    0.0411
 H     3.3876    3.4433    0.0000   -0.0001
 H    -4.6758    1.2121    0.0000   -0.0001
 C    -0.0000    2.9573    0.0000   -0.0438
 C    -2.4679    2.8668    0.0000   -0.0504
 H     1.2883    4.6555    0.0000   -0.0001
 H    -1.6238    0.9376    0.0000   -0.0001
 C    -1.2488    3.5706    0.0000    0.0512
 H     0.0001    1.8751    0.0000   -0.0002
 H    -3.3876    3.4434    0.0000   -0.0001
 H    -1.2882    4.6554    0.0000   -0.0002
