    36
jmolscript:isosurface resolution 5 molecular  0.0 map MEP translucent; background white; color isosurface range -0.1 0.1                              
 C     1.2487   -3.5706    0.0000    0.0925
 C     2.4679   -2.8668    0.0000    0.1962
 H     1.2882   -4.6554    0.0000   -0.1472
 C    -0.0000   -2.9573    0.0000    0.2239
 H     3.3876   -3.4434    0.0000   -0.1471
 C     2.5612   -1.4787    0.0000    0.1383
 C    -1.2488   -3.5706    0.0000    0.1092
 H    -0.0001   -1.8751    0.0000   -0.1746
 C     3.7166   -0.7039    0.0000    0.1769
 C    -2.4679   -2.8668    0.0000    0.1641
 H     1.6238   -0.9376    0.0000   -0.1744
 H    -1.2883   -4.6554    0.0000   -0.1469
 C     3.7166    0.7039    0.0000    0.1282
 C    -2.5611   -1.4787    0.0000    0.1771
 H     4.6758   -1.2121    0.0000   -0.1469
 H    -3.3876   -3.4434    0.0000   -0.1470
 C     2.5611    1.4786    0.0000    0.1771
 C    -3.7167   -0.7039    0.0000    0.1282
 H     4.6759    1.2120    0.0000   -0.1471
 H    -1.6239   -0.9374    0.0000   -0.1750
 C     2.4679    2.8668    0.0000    0.1641
 C    -3.7166    0.7039    0.0000    0.1769
 H     1.6239    0.9375    0.0000   -0.1750
 H    -4.6759   -1.2120    0.0000   -0.1471
 C     1.2487    3.5707    0.0000    0.1091
 C    -2.5611    1.4787    0.0000    0.1383
 H     3.3876    3.4433    0.0000   -0.1470
 H    -4.6758    1.2121    0.0000   -0.1469
 C    -0.0000    2.9573    0.0000    0.2239
 C    -2.4679    2.8668    0.0000    0.1962
 H     1.2883    4.6555    0.0000   -0.1469
 H    -1.6238    0.9376    0.0000   -0.1744
 C    -1.2488    3.5706    0.0000    0.0925
 H     0.0001    1.8751    0.0000   -0.1746
 H    -3.3876    3.4434    0.0000   -0.1471
 H    -1.2882    4.6554    0.0000   -0.1472
