    55
jmolscript:isosurface resolution 5 molecular  0.0 map MEP translucent; background white; color isosurface range -0.1 0.1                              
 O    -0.5239    0.0000   -0.8879   -0.3414
 C    -0.5213    0.0000    0.4750    0.1338
 C     0.7704    0.0000   -1.2803    0.1355
 C     0.7707    0.0000    0.9472   -0.0153
 C     1.6063    0.0000   -0.1938   -0.0689
 C    -1.8201    0.0000    1.1312    0.2491
 H     0.9401    0.0000   -2.3417    0.0952
 H    -2.6814    0.0000    0.4425    0.0810
 O    -1.9610    0.0000    2.3417   -0.4262
 H     2.6814    0.0000   -0.2252    0.0657
 H     1.0495    0.0000    1.9861    0.0799
 O    -2.6251    7.5935    5.1984   -0.2949
 C    -2.0311    7.3803    6.4064    0.1431
 C    -2.4293    6.4743    4.4647    0.1376
 C    -1.4597    6.1295    6.4403    0.0075
 C    -1.7197    5.5442    5.1793   -0.0403
 C    -2.1132    8.4627    7.3754    0.2526
 H    -2.8433    6.4839    3.4729    0.0786
 H    -2.6569    9.3544    7.0213    0.0795
 O    -1.6262    8.4039    8.4910   -0.4086
 H    -1.4290    4.5690    4.8311    0.0795
 H    -0.9285    5.7146    7.2785    0.0884
 O     4.8617   -3.0035   -2.1872   -0.3436
 C     3.7004   -2.6633   -2.8144    0.1380
 C     4.7094   -4.2732   -1.7467    0.1458
 C     2.8130   -3.7135   -2.7726   -0.0073
 C     3.4704   -4.7563   -2.0794   -0.0661
 C     3.6297   -1.3233   -3.3773    0.2481
 H     5.5493   -4.6934   -1.2239    0.0871
 H     4.5396   -0.7171   -3.2330    0.0844
 O     2.6521   -0.8916   -3.9631   -0.4293
 H     3.0933   -5.7369   -1.8491    0.0679
 H     1.8239   -3.7048   -3.1950    0.0817
 O     5.7207    5.4544    5.2227   -0.2319
 C     5.0049    5.8220    6.3228    0.1536
 C     6.9060    6.1019    5.2945   -0.0252
 C     5.7331    6.7002    7.0912   -0.0790
 C     6.9658    6.8798    6.4216   -0.0455
 C     3.6773    5.2428    6.4623    0.1091
 H     7.5932    5.9155    4.4893    0.0849
 H     3.3888    4.5568    5.6485    0.0820
 O     2.9333    5.4859    7.3964   -0.4058
 H     7.7952    7.4967    6.7188    0.1061
 H     5.3969    7.1414    8.0128    0.1285
 O     7.6685   -0.6921   -5.4665   -0.3461
 C     7.7184   -0.9054   -4.1213    0.1434
 C     7.0378    0.4900   -5.6506    0.1369
 C     7.1213    0.1379   -3.4527   -0.0148
 C     6.6808    1.0415   -4.4475   -0.0655
 C     8.3612   -2.1332   -3.6775    0.2545
 H     6.9172    0.8047   -6.6713    0.0824
 H     8.7453   -2.7696   -4.4921    0.0821
 O     8.4737   -2.4466   -2.5052   -0.4162
 H     6.1679    1.9769   -4.3099    0.0676
 H     7.0276    0.2149   -2.3840    0.0810
