 250
  Name: C250                                                                    
 C    -1.41248    -3.15107     2.46232
 C     1.37449    -3.15107     2.46232
 C     2.51335    -2.32361     2.46232
 C     3.37451     0.32699     2.46335
 C     2.93947     1.66581     2.46392
 C    -2.55137    -2.32364     2.46278
 C    -3.41265     0.32692     2.46392
 C    -2.97768     1.66576     2.46442
 C    -0.72299     3.30393     2.46489
 C     0.68474     3.30394     2.46477
 C    -1.41211    -3.16180     4.90734
 C     1.37444    -3.16173     4.90718
 C     2.52286    -2.32735     4.90735
 C     3.38392     0.32281     4.90832
 C     2.94523     1.67285     4.90890
 C     3.39951    -0.39023     3.69052
 C     2.95485    -1.75885     3.69000
 C    -0.73846    -3.39671     3.68968
 C    -2.56054    -2.32743     4.90777
 C    -2.99270    -1.75892     3.69050
 C    -3.43741    -0.39032     3.69109
 C    -3.42165     0.32272     4.90889
 C    -2.98302     1.67278     4.90940
 C    -2.57642     2.25974     3.69208
 C    -1.41223     3.10561     3.69232
 C    -0.72868     3.31069     4.90986
 C     2.53841     2.25979     3.69165
 C     0.69085     3.31071     4.90974
 C     1.37419     3.10563     3.69209
 C     0.70058    -3.39669     3.68966
 C    -1.41032    -3.17582     7.38584
 C     1.37306    -3.17576     7.38563
 C     2.53597    -2.33085     7.38585
 C     3.39605     0.31630     7.38682
 C     2.95184     1.68337     7.38739
 C     3.36954    -0.40030     6.15296
 C     2.93598    -1.73471     6.15247
 C    -0.72028    -3.37178     6.15213
 C    -2.57325    -2.33094     7.38627
 C    -2.97346    -1.73480     6.15296
 C    -3.40705    -0.40039     6.15352
 C    -3.43338     0.31620     7.38739
 C    -2.98920     1.68328     7.38789
 C    -2.54645     2.24838     6.15451
 C    -1.41134     3.07310     6.15474
 C    -0.73742     3.31933     7.38835
 C     2.50886     2.24844     6.15408
 C     0.70001     3.31935     7.38823
 C     1.37373     3.07313     6.15450
 C     0.68280    -3.37174     6.15205
 C     0.71115    -1.04416    15.04008
 C    -0.74717    -1.04418    15.04021
 C    -1.19784     0.34275    15.04079
 C    -0.01804     1.19995    15.04103
 C     1.16177     0.34279    15.04059
 C    -1.43598    -1.99191    14.30153
 C    -2.59917    -1.60350    13.51857
 C    -3.02526    -0.29222    13.51913
 C    -2.31235     0.70513    14.30267
 C    -2.30274     1.93156    13.51994
 C    -1.18730     2.74200    13.52017
 C    -0.01812     2.37204    14.30313
 C     1.15091     2.74204    13.51997
 C     2.26638     1.93163    13.51956
 C     2.27615     0.70520    14.30229
 C     2.98896    -0.29213    13.51862
 C     2.56291    -1.60343    13.51814
 C     1.39987    -1.99187    14.30130
 C     0.67127    -2.97782    13.51776
 C    -0.70750    -2.97784    13.51787
 C     2.54559    -2.33853    12.26702
 C     1.37608    -3.18825    12.26678
 C    -2.58205    -2.33860    12.26745
 C    -1.41251    -3.18829    12.26702
 C     3.40728     0.31359    12.26800
 C     2.96054     1.68844    12.26857
 C     0.70450     3.32750    12.26941
 C    -0.74111     3.32748    12.26953
 C    -2.99711     1.68836    12.26907
 C    -3.44381     0.31350    12.26857
 C    -3.49127    -0.40620    11.07625
 C    -3.04378    -1.78335    11.07567
 C    -0.74233    -3.45540    11.07482
 C     0.70570    -3.45538    11.07470
 C     3.00712    -1.78327    11.07517
 C     3.45456    -0.40610    11.07567
 C     1.40396     3.15049    11.07724
 C     2.57545     2.29937    11.07681
 C    -2.61224     2.29930    11.07724
 C    -1.44076     3.15045    11.07748
 C    -1.42599    -3.17076     9.84119
 C     1.38914    -3.17072     9.84096
 C     2.52554    -2.34506     9.84118
 C     3.39543     0.33229     9.84216
 C     2.96134     1.66820     9.84273
 C    -2.56240    -2.34514     9.84160
 C    -3.43236     0.33219     9.84273
 C    -2.99831     1.66811     9.84322
 C    -0.72084     3.32283     9.84369
 C     0.68383     3.32285     9.84357
 C     3.39294    -0.39569     8.60068
 C     2.53111     2.25661     8.60180
 C     1.37580     3.09596     8.60223
 C    -1.41301     3.09592     8.60247
 C    -2.56829     2.25654     8.60223
 C     2.95167    -1.75382     8.60019
 C     0.69548    -3.39306     8.59974
 C    -0.73253    -3.39309     8.59985
 C    -2.98876    -1.75391     8.60068
 C    -3.43006    -0.39579     8.60125
 C    -1.41268     3.08503     1.21879
 C    -0.73921     3.32640    -0.00332
 C     0.70055     3.32640    -0.00344
 C     1.37422     3.08504     1.21855
 C    -2.55604     2.25431     1.21855
 C    -3.41717    -0.39622     1.21756
 C    -3.43822     0.31931    -0.00429
 C    -2.99336     1.68862    -0.00378
 C    -2.98040    -1.74032     1.21698
 C     2.51760     2.25434     1.21812
 C    -0.72569    -3.37841     1.21615
 C    -1.41231    -3.17687    -0.00585
 C    -2.57711    -2.33061    -0.00542
 C     0.68759    -3.37842     1.21613
 C     2.94217    -1.74027     1.21647
 C     2.53874    -2.33060    -0.00585
 C     1.37398    -3.17690    -0.00603
 C     3.37886    -0.39614     1.21699
 C     2.95473     1.68866    -0.00429
 C     3.39967     0.31938    -0.00487
 C    -0.73867     3.32524    -7.39500
 C     0.69876     3.32525    -7.39512
 C     3.39478     0.32216    -7.39654
 C     2.53475    -2.32501    -7.39753
 C     1.37186    -3.16993    -7.39776
 C    -1.41151    -3.16996    -7.39752
 C    -2.57443    -2.32506    -7.39708
 C    -2.99043     1.68916    -7.39545
 C    -3.43459     0.32207    -7.39596
 C     2.95056     1.68923    -7.39596
 C     3.39148    -0.38886    -8.61097
 C     2.95024    -1.74700    -8.61148
 C    -0.73394    -3.38627    -8.61181
 C    -2.99016    -1.74707    -8.61096
 C    -3.43146    -0.38896    -8.61038
 C    -2.56973     2.26339    -8.60941
 C    -1.41447     3.10278    -8.60917
 C     2.52964     2.26345    -8.60984
 C     1.37435     3.10281    -8.60941
 C     0.69407    -3.38626    -8.61193
 C    -1.42761    -3.16296    -9.85285
 C     1.38752    -3.16292    -9.85310
 C     2.52390    -2.33726    -9.85287
 C     3.39376     0.34010    -9.85187
 C     2.95967     1.67602    -9.85131
 C     3.45270    -0.39730   -11.08598
 C     3.00526    -1.77447   -11.08649
 C    -0.74417    -3.44662   -11.08683
 C    -2.56402    -2.33733    -9.85242
 C    -3.04562    -1.77456   -11.08596
 C    -3.49311    -0.39741   -11.08537
 C    -3.43399     0.34000    -9.85128
 C    -2.99995     1.67593    -9.85079
 C    -2.61410     2.30810   -11.08438
 C    -1.44263     3.15925   -11.08414
 C    -0.72250     3.33067    -9.85034
 C     2.57358     2.30817   -11.08482
 C     0.68217     3.33068    -9.85045
 C     1.40209     3.15929   -11.08439
 C     0.70386    -3.44660   -11.08695
 C    -3.44586     0.32323   -12.27712
 C    -2.99917     1.69810   -12.27662
 C    -1.41456    -3.17855   -12.27870
 C    -2.58409    -2.32886   -12.27825
 C     1.37403    -3.17851   -12.27894
 C     2.54354    -2.32879   -12.27871
 C    -0.74318     3.33723   -12.27617
 C     0.70243     3.33725   -12.27629
 C     2.95847     1.69819   -12.27713
 C     3.40521     0.32334   -12.27772
 C     2.98668    -0.28140   -13.52876
 C     2.56064    -1.59270   -13.52925
 C     0.66901    -2.96710   -13.52963
 C    -0.70976    -2.96712   -13.52951
 C    -2.60144    -1.59278   -13.52879
 C    -3.02753    -0.28150   -13.52823
 C    -2.30502     1.94229   -13.52742
 C    -1.18958     2.75274   -13.52719
 C     2.26410     1.94237   -13.52781
 C     1.14863     2.75277   -13.52739
 C    -2.31476     0.71648   -14.31111
 C    -0.02054     2.38339   -14.31065
 C     2.27374     0.71655   -14.31151
 C     1.39746    -1.98051   -14.31251
 C    -1.43839    -1.98056   -14.31226
 C     0.70861    -1.03223   -15.05043
 C    -0.74970    -1.03225   -15.05030
 C    -1.20037     0.35469   -15.04971
 C     1.15924     0.35472   -15.04991
 C    -0.02058     1.21188   -15.04947
 C    -1.41287    -3.15789    -4.91902
 C     1.37366    -3.15788    -4.91926
 C     2.52206    -2.32347    -4.91903
 C     3.38306     0.32671    -4.91805
 C     2.94438     1.67676    -4.91748
 C     3.36848    -0.39541    -6.16325
 C     2.93495    -1.72983    -6.16375
 C    -0.72126    -3.36691    -6.16408
 C    -2.56130    -2.32352    -4.91859
 C    -2.97444    -1.72989    -6.16323
 C    -3.40804    -0.39550    -6.16267
 C    -3.42244     0.32663    -4.91747
 C    -2.98383     1.67670    -4.91697
 C    -2.54748     2.25329    -6.16170
 C    -1.41238     3.07803    -6.16147
 C    -0.72951     3.31463    -4.91651
 C     2.50780     2.25334    -6.16213
 C     0.69002     3.31464    -4.91663
 C     1.37268     3.07805    -6.16170
 C     0.68182    -3.36690    -6.16420
 C    -1.41287    -3.14912    -2.47404
 C     1.37410    -3.14913    -2.47427
 C     2.51295    -2.32166    -2.47406
 C     3.37408     0.32895    -2.47308
 C     2.93905     1.66777    -2.47251
 C     3.39887    -0.38729    -3.70082
 C     2.95423    -1.75592    -3.70133
 C    -0.73901    -3.39378    -3.70166
 C    -2.55175    -2.32168    -2.47362
 C    -2.99328    -1.75597    -3.70082
 C    -3.43800    -0.38737    -3.70024
 C    -3.41304     0.32889    -2.47250
 C    -2.97808     1.66773    -2.47200
 C    -2.57704     2.26270    -3.69926
 C    -1.41285     3.10857    -3.69902
 C    -0.72340     3.30592    -2.47154
 C     2.53777     2.26273    -3.69969
 C     0.68432     3.30592    -2.47166
 C     1.37356     3.10858    -3.69926
 C     0.70002    -3.39379    -3.70177
 C     3.37865    -0.39518    -1.22730
 C     2.94197    -1.73931    -1.22779
 C    -0.72591    -3.37745    -1.22812
 C    -2.98058    -1.73935    -1.22729
 C    -3.41735    -0.39525    -1.22672
 C    -2.55625     2.25529    -1.22574
 C    -1.41289     3.08602    -1.22550
 C     2.51739     2.25531    -1.22617
 C     1.37402     3.08602    -1.22574
 C     0.68737    -3.37746    -1.22821
