 5
 Metano 
 C         0.000000000000      0.000000000000      0.000000000000
 H         0.000000000000      0.000000000000      1.086258854621
 H         1.024134669635      0.000000000000     -0.362086284874
 H        -0.512067334818     -0.886926640801     -0.362086284874
 H        -0.512067334818      0.886926640801     -0.362086284874
